Version 4.1
SHEET 1 880 680
SYMBOL voltage 0 80 R0
WINDOW 123 0 0 Left 0
WINDOW 39 0 0 Left 0
SYMATTR InstName V1
SYMATTR Value 12V
SYMBOL ind 192 80 R0
SYMATTR InstName L1
