Version 4.1
SHEET 1 1696 712
WIRE 944 272 288 272
WIRE 288 304 288 272
WIRE 944 352 944 272
WIRE 288 432 288 384
WIRE 688 432 288 432
WIRE 848 432 768 432
WIRE 896 432 848 432
WIRE 288 480 288 432
WIRE 848 480 848 432
WIRE 848 576 848 544
WIRE 896 576 848 576
WIRE 944 576 944 448
WIRE 944 576 896 576
WIRE 288 624 288 560
WIRE 896 624 896 576
WIRE 896 624 288 624
WIRE 288 672 288 624
FLAG 288 672 0
SYMBOL res 784 416 R90
WINDOW 0 0 56 VBottom 2
WINDOW 3 32 56 VTop 2
SYMATTR InstName R1
SYMATTR Value 1.2k
SYMATTR SpiceLine tol=5 pwr=1
SYMBOL nmos 896 352 R0
SYMATTR InstName M1
SYMATTR Value IRFZ44N
SYMBOL zener 864 544 R180
WINDOW 0 24 64 Left 2
WINDOW 3 24 0 Left 2
SYMATTR InstName D1
SYMBOL voltage 288 464 R0
WINDOW 123 0 0 Left 0
WINDOW 39 0 0 Left 0
SYMATTR InstName V1
SYMATTR Value SINE(12 0.05 100k)
SYMBOL res 272 288 R0
SYMATTR InstName R2
SYMATTR Value 10
TEXT 296 168 Left 1 !.model 1N4733A D(IS=4.58E-9 RS=0.6837 N=1.9943 BV=5.1 IBV=0.07 CJO=1.044E-11 VJ=0.8 M=0.5 EG=1.11 XTI=3 FC=0.5 TT=5.0E-9)
TEXT 296 200 Left 2 !.tran 0 30m 0 1u
